LTspice 24.0.12 for Windows
Circuit: * C:\Users\nicki\Documents\Studium_ET\HSB_Master\Module_MSc\WiSe_MSc\CEMS\prj_ADS1115_ic-1\zip_meiners\ltspice\dsm_l2\Draft1.asc
Start Time: Thu Feb  6 14:18:23 2025
solver = Normal
Maximum thread count: 8
tnom = 27
temp = 27
method = modified trap
Fatal Error: Voltage source E:X2:1 and voltage source E:X1:1 are paralleled making an over-defined circuit matrix.
You will need to correct the circuit or add some series resistance.
