LTspice 24.0.12 for Windows
Circuit: * C:\Users\nicki\Documents\Studium_ET\HSB_Master\Module_MSc\WiSe_MSc\CEMS\prj_ADS1115_ic-1\zip_meiners\ltspice\dsm_l2\Draft1.asc
Start Time: Thu Jan 23 12:51:39 2025
solver = Normal
Maximum thread count: 8
tnom = 27
temp = 27
method = modified trap
WARNING: Node VOUT is floating.

WARNING: Less than two connections to node vout.  This node is used by c3.
Direct Newton iteration for .op point succeeded.
Total elapsed time: 0.159 seconds.

