LTspice 24.0.12 for Windows
Circuit: * C:\Users\nicki\Documents\Studium_ET\HSB_Master\Module_MSc\WiSe_MSc\CEMS\prj_ADS1115_ic-1\zip_meiners\ltspice\dsm_l2\Draft1.asc
Start Time: Thu Jan 16 20:34:03 2025
solver = Normal
Maximum thread count: 8
tnom = 27
temp = 27
method = modified trap
Direct Newton iteration for .op point succeeded.
Total elapsed time: 0.135 seconds.

