Circuit: * C:\Users\mikok\OneDrive\studium\Master\ws\cems\prj_ADS1115_ic\zip_meiners\ltspice\dsm_l2\dsm_l2.asc

Error: unknown token in: "v(hold)>0[?]v(vdd):0"
Error: unknown token in: "v(in)>v(vdd)/2[?]v(vss):v(vdd)"
WARNING: Less than two connections to node VD.  This node is used by A§DFF.
Per .tran options, skipping operating point for transient analysis.

Date: Mon Feb 10 23:27:12 2025
Total elapsed time: 10.668 seconds.

tnom = 27
temp = 27
method = modified trap
totiter = 2361013
traniter = 2361013
tranpoints = 1081589
accept = 786376
rejected = 295213
matrix size = 33
fillins = 17
solver = Normal
Matrix Compiler1: 1.72 KB object code size  0.3/0.2/[0.1]
Matrix Compiler2: 2.29 KB object code size  0.2/0.2/[0.2]

