Circuit: * Z:\home\mkranich\OneDrive\studium\Master\ws\cems\prj_ADS1115_ic\zip_meiners\spice\dsm_l1\dsm_l1.asc

Error: unknown token in: "v(hold)>0[?]v(vdd):0"
X2: all pins shorted together -- ignoring.
WARNING: Less than two connections to node VD.  This node is used by A1.
WARNING: Less than two connections to node VFB.  This node is used by S2.
Per .tran options, skipping operating point for transient analysis.

Date: Thu Dec 05 09:55:21 2024
Total elapsed time: 4.807 seconds.

tnom = 27
temp = 27
method = modified trap
totiter = 1443283
traniter = 1443283
tranpoints = 695087
accept = 570033
rejected = 125054
matrix size = 28
fillins = 1
solver = Normal
Matrix Compiler1: 832 bytes object code size  0.7/0.5/[0.4]
Matrix Compiler2: 1.56 KB object code size  0.5/0.8/[0.5]

