Circuit: * Z:\home\mkranich\OneDrive\studium\Master\ws\cems\prj_ADS1115_ic\zip_meiners\ltspice\dsm_l1\dsm_l1.asc

Error: unknown token in: "v(hold)>0[?]v(vdd):0"
Error: unknown token in: "v(in)>v(vdd)/2[?]v(vss):v(vdd)"
WARNING: Less than two connections to node VD.  This node is used by A1.
Per .tran options, skipping operating point for transient analysis.

Date: Fri Feb 07 12:40:10 2025
Total elapsed time: 11.046 seconds.

tnom = 27
temp = 27
method = modified trap
totiter = 2894067
traniter = 2894067
tranpoints = 1336043
accept = 977254
rejected = 358789
matrix size = 29
fillins = 9
solver = Normal
Matrix Compiler1: 1.09 KB object code size  0.2/0.1/[0.1]
Matrix Compiler2: 1.78 KB object code size  0.1/0.2/[0.1]

